instances/data_GOC/Phase_0_Modified_RTS96/scenario_13/powersystem.raw
 0,  100.000000
rts96_spring_wday.raw / File written by to_psse.gms
5 / 19 / 2015
101, ' 101 ',138,2,1,1,1,1.00,0.00,1.1,0.9,1.1,0.9
102, ' 102 ',138,2,1,1,1,1.00,0.00,1.1,0.9,1.1,0.9
103, ' 103 ',138,1,1,1,1,1.00,0.00,1.1,0.9,1.1,0.9
104, ' 104 ',138,1,1,1,1,1.00,0.00,1.1,0.9,1.1,0.9
105, ' 105 ',138,1,1,1,1,1.00,0.00,1.1,0.9,1.1,0.9
106, ' 106 ',138,1,1,1,1,1.00,0.00,1.1,0.9,1.1,0.9
107, ' 107 ',138,2,1,1,1,1.00,0.00,1.1,0.9,1.1,0.9
108, ' 108 ',138,1,1,1,1,1.00,0.00,1.1,0.9,1.1,0.9
109, ' 109 ',138,1,1,1,1,1.00,0.00,1.1,0.9,1.1,0.9
110, ' 110 ',138,1,1,1,1,1.00,0.00,1.1,0.9,1.1,0.9
111, ' 111 ',230,1,1,1,1,1.00,0.00,1.1,0.9,1.1,0.9
112, ' 112 ',230,1,1,1,1,1.00,0.00,1.1,0.9,1.1,0.9
113, ' 113 ',230,3,1,1,1,1.00,0.00,1.1,0.9,1.1,0.9
114, ' 114 ',230,2,1,1,1,1.00,0.00,1.1,0.9,1.1,0.9
115, ' 115 ',230,2,1,1,1,1.00,0.00,1.1,0.9,1.1,0.9
116, ' 116 ',230,2,1,1,1,1.00,0.00,1.1,0.9,1.1,0.9
117, ' 117 ',230,1,1,1,1,1.00,0.00,1.1,0.9,1.1,0.9
118, ' 118 ',230,2,1,1,1,1.00,0.00,1.1,0.9,1.1,0.9
119, ' 119 ',230,1,1,1,1,1.00,0.00,1.1,0.9,1.1,0.9
120, ' 120 ',230,1,1,1,1,1.00,0.00,1.1,0.9,1.1,0.9
121, ' 121 ',230,2,1,1,1,1.00,0.00,1.1,0.9,1.1,0.9
122, ' 122 ',230,2,1,1,1,1.00,0.00,1.1,0.9,1.1,0.9
123, ' 123 ',230,2,1,1,1,1.00,0.00,1.1,0.9,1.1,0.9
124, ' 124 ',230,1,1,1,1,1.00,0.00,1.1,0.9,1.1,0.9
201, ' 201 ',138,2,1,1,1,1.00,0.00,1.1,0.9,1.1,0.9
202, ' 202 ',138,2,1,1,1,1.00,0.00,1.1,0.9,1.1,0.9
203, ' 203 ',138,1,1,1,1,1.00,0.00,1.1,0.9,1.1,0.9
204, ' 204 ',138,1,1,1,1,1.00,0.00,1.1,0.9,1.1,0.9
205, ' 205 ',138,1,1,1,1,1.00,0.00,1.1,0.9,1.1,0.9
206, ' 206 ',138,1,1,1,1,1.00,0.00,1.1,0.9,1.1,0.9
207, ' 207 ',138,2,1,1,1,1.00,0.00,1.1,0.9,1.1,0.9
208, ' 208 ',138,1,1,1,1,1.00,0.00,1.1,0.9,1.1,0.9
209, ' 209 ',138,1,1,1,1,1.00,0.00,1.1,0.9,1.1,0.9
210, ' 210 ',138,1,1,1,1,1.00,0.00,1.1,0.9,1.1,0.9
211, ' 211 ',230,1,1,1,1,1.00,0.00,1.1,0.9,1.1,0.9
212, ' 212 ',230,1,1,1,1,1.00,0.00,1.1,0.9,1.1,0.9
213, ' 213 ',230,2,1,1,1,1.00,0.00,1.1,0.9,1.1,0.9
214, ' 214 ',230,2,1,1,1,1.00,0.00,1.1,0.9,1.1,0.9
215, ' 215 ',230,2,1,1,1,1.00,0.00,1.1,0.9,1.1,0.9
216, ' 216 ',230,2,1,1,1,1.00,0.00,1.1,0.9,1.1,0.9
217, ' 217 ',230,1,1,1,1,1.00,0.00,1.1,0.9,1.1,0.9
218, ' 218 ',230,2,1,1,1,1.00,0.00,1.1,0.9,1.1,0.9
219, ' 219 ',230,1,1,1,1,1.00,0.00,1.1,0.9,1.1,0.9
220, ' 220 ',230,1,1,1,1,1.00,0.00,1.1,0.9,1.1,0.9
221, ' 221 ',230,2,1,1,1,1.00,0.00,1.1,0.9,1.1,0.9
222, ' 222 ',230,2,1,1,1,1.00,0.00,1.1,0.9,1.1,0.9
223, ' 223 ',230,2,1,1,1,1.00,0.00,1.1,0.9,1.1,0.9
224, ' 224 ',230,1,1,1,1,1.00,0.00,1.1,0.9,1.1,0.9
301, ' 301 ',138,2,1,1,1,1.00,0.00,1.1,0.9,1.1,0.9
302, ' 302 ',138,2,1,1,1,1.00,0.00,1.1,0.9,1.1,0.9
303, ' 303 ',138,1,1,1,1,1.00,0.00,1.1,0.9,1.1,0.9
304, ' 304 ',138,1,1,1,1,1.00,0.00,1.1,0.9,1.1,0.9
305, ' 305 ',138,1,1,1,1,1.00,0.00,1.1,0.9,1.1,0.9
306, ' 306 ',138,1,1,1,1,1.00,0.00,1.1,0.9,1.1,0.9
307, ' 307 ',138,2,1,1,1,1.00,0.00,1.1,0.9,1.1,0.9
308, ' 308 ',138,1,1,1,1,1.00,0.00,1.1,0.9,1.1,0.9
309, ' 309 ',138,1,1,1,1,1.00,0.00,1.1,0.9,1.1,0.9
310, ' 310 ',138,1,1,1,1,1.00,0.00,1.1,0.9,1.1,0.9
311, ' 311 ',230,1,1,1,1,1.00,0.00,1.1,0.9,1.1,0.9
312, ' 312 ',230,1,1,1,1,1.00,0.00,1.1,0.9,1.1,0.9
313, ' 313 ',230,2,1,1,1,1.00,0.00,1.1,0.9,1.1,0.9
314, ' 314 ',230,2,1,1,1,1.00,0.00,1.1,0.9,1.1,0.9
315, ' 315 ',230,2,1,1,1,1.00,0.00,1.1,0.9,1.1,0.9
316, ' 316 ',230,2,1,1,1,1.00,0.00,1.1,0.9,1.1,0.9
317, ' 317 ',230,1,1,1,1,1.00,0.00,1.1,0.9,1.1,0.9
318, ' 318 ',230,2,1,1,1,1.00,0.00,1.1,0.9,1.1,0.9
319, ' 319 ',230,1,1,1,1,1.00,0.00,1.1,0.9,1.1,0.9
320, ' 320 ',230,1,1,1,1,1.00,0.00,1.1,0.9,1.1,0.9
321, ' 321 ',230,2,1,1,1,1.00,0.00,1.1,0.9,1.1,0.9
322, ' 322 ',230,2,1,1,1,1.00,0.00,1.1,0.9,1.1,0.9
323, ' 323 ',230,2,1,1,1,1.00,0.00,1.1,0.9,1.1,0.9
324, ' 324 ',230,1,1,1,1,1.00,0.00,1.1,0.9,1.1,0.9
325, ' 325 ',230,1,1,1,1,1.00,0.00,1.1,0.9,1.1,0.9
0 / END OF BUS DATA, BEGIN LOAD DATA
101, '1 ',1,11,11,64.2068342889972,19.560218859279153,0.0,0.0,0.0,0.0,1,1,0
102, '1 ',1,11,12,49.830922684099896,11.411039176521822,0.0,0.0,0.0,0.0,1,1,0
103, '1 ',1,11,11,124.36107940342929,27.51686698648268,0.0,0.0,0.0,0.0,1,1,0
104, '1 ',1,11,11,64.92192448931728,9.61279630542104,0.0,0.0,0.0,0.0,1,1,0
105, '1 ',1,11,11,41.88404989025589,10.098684804695193,0.0,0.0,0.0,0.0,1,1,0
106, '1 ',1,11,12,88.67345572765656,22.189985605355723,0.0,0.0,0.0,0.0,1,1,0
107, '1 ',1,11,12,72.56675330676372,16.37636845638044,0.0,0.0,0.0,0.0,1,1,0
108, '1 ',1,11,12,83.87457520517079,23.56766484392574,0.0,0.0,0.0,0.0,1,1,0
109, '1 ',1,11,13,125.30641152536846,28.18670235071685,0.0,0.0,0.0,0.0,1,1,0
110, '1 ',1,11,13,144.77496241319412,24.604094964148477,0.0,0.0,0.0,0.0,1,1,0
111, '1 ',1,11,13,0.0,0.0,0.0,0.0,0.0,0.0,1,1,0
112, '1 ',1,11,13,0.0,0.0,0.0,0.0,0.0,0.0,1,1,0
113, '1 ',1,12,14,220.01428202928022,45.40134555149395,0.0,0.0,0.0,0.0,1,1,0
114, '1 ',1,12,16,110.77052459944971,33.57955024641277,0.0,0.0,0.0,0.0,1,1,0
115, '1 ',1,12,16,243.15456031413075,56.75652151256204,0.0,0.0,0.0,0.0,1,1,0
116, '1 ',1,12,16,77.09946677721105,12.787926746710204,0.0,0.0,0.0,0.0,1,1,0
117, '1 ',1,12,17,0.0,0.0,0.0,0.0,0.0,0.0,1,1,0
118, '1 ',1,12,17,277.2966577715083,33.48980680172927,0.0,0.0,0.0,0.0,1,1,0
119, '1 ',1,12,15,137.49700797347612,22.43345134407752,0.0,0.0,0.0,0.0,1,1,0
120, '1 ',1,12,15,113.79968820396064,19.32942743029939,0.0,0.0,0.0,0.0,1,1,0
121, '1 ',1,12,17,0.0,0.0,0.0,0.0,0.0,0.0,1,1,0
122, '1 ',1,12,17,0.0,0.0,0.0,0.0,0.0,0.0,1,1,0
123, '1 ',1,12,15,0.0,0.0,0.0,0.0,0.0,0.0,1,1,0
124, '1 ',1,12,16,0.0,0.0,0.0,0.0,0.0,0.0,1,1,0
201, '1 ',1,21,21,62.18823371594901,17.569668822828124,0.0,0.0,0.0,0.0,1,1,0
202, '1 ',1,21,22,69.83668018142092,14.54740893669147,0.0,0.0,0.0,0.0,1,1,0
203, '1 ',1,21,21,105.95576219228188,30.13630918950056,0.0,0.0,0.0,0.0,1,1,0
204, '1 ',1,21,21,60.180988386334384,9.612089905699483,0.0,0.0,0.0,0.0,1,1,0
205, '1 ',1,21,21,44.35045683195242,12.242379942271112,0.0,0.0,0.0,0.0,1,1,0
206, '1 ',1,21,22,82.8677039682962,21.83912523345072,0.0,0.0,0.0,0.0,1,1,0
207, '1 ',1,21,22,94.97173298060079,22.16547445481876,0.0,0.0,0.0,0.0,1,1,0
208, '1 ',1,21,22,100.28360047233473,29.924806338388244,0.0,0.0,0.0,0.0,1,1,0
209, '1 ',1,21,23,150.17312242655436,18.834856804567202,0.0,0.0,0.0,0.0,1,1,0
210, '1 ',1,21,23,141.26742386181,34.012263654330745,0.0,0.0,0.0,0.0,1,1,0
211, '1 ',1,21,23,0.0,0.0,0.0,0.0,0.0,0.0,1,1,0
212, '1 ',1,21,23,0.0,0.0,0.0,0.0,0.0,0.0,1,1,0
213, '1 ',1,22,24,132.75409637706565,37.94323246481912,0.0,0.0,0.0,0.0,1,1,0
214, '1 ',1,22,26,125.68286593882414,32.44099511458715,0.0,0.0,0.0,0.0,1,1,0
215, '1 ',1,22,26,199.83999353449835,32.04359987747669,0.0,0.0,0.0,0.0,1,1,0
216, '1 ',1,22,26,75.67665506492368,16.257143053418957,0.0,0.0,0.0,0.0,1,1,0
217, '1 ',1,22,27,0.0,0.0,0.0,0.0,0.0,0.0,1,1,0
218, '1 ',1,22,27,261.6441514091465,51.51098650020529,0.0,0.0,0.0,0.0,1,1,0
219, '1 ',1,22,25,155.4285277607855,29.34932452670652,0.0,0.0,0.0,0.0,1,1,0
220, '1 ',1,22,25,100.28987094946503,14.32176101159323,0.0,0.0,0.0,0.0,1,1,0
221, '1 ',1,22,27,0.0,0.0,0.0,0.0,0.0,0.0,1,1,0
222, '1 ',1,22,27,0.0,0.0,0.0,0.0,0.0,0.0,1,1,0
223, '1 ',1,22,25,0.0,0.0,0.0,0.0,0.0,0.0,1,1,0
224, '1 ',1,22,26,0.0,0.0,0.0,0.0,0.0,0.0,1,1,0
301, '1 ',1,31,31,67.15222964358664,16.413965837737454,0.0,0.0,0.0,0.0,1,1,0
302, '1 ',1,31,32,49.293976081955485,16.349811103966086,0.0,0.0,0.0,0.0,1,1,0
303, '1 ',1,31,31,122.7477608729219,28.480351177965566,0.0,0.0,0.0,0.0,1,1,0
304, '1 ',1,31,31,65.23846517712911,10.052763291659765,0.0,0.0,0.0,0.0,1,1,0
305, '1 ',1,31,31,34.927558649770454,8.07013266683584,0.0,0.0,0.0,0.0,1,1,0
306, '1 ',1,31,32,92.81229853594154,16.430973829726316,0.0,0.0,0.0,0.0,1,1,0
307, '1 ',1,31,32,83.88990585225402,20.514941945130705,0.0,0.0,0.0,0.0,1,1,0
308, '1 ',1,31,32,134.25235275870875,29.717836607986595,0.0,0.0,0.0,0.0,1,1,0
309, '1 ',1,31,33,87.33618035029038,21.97050345214829,0.0,0.0,0.0,0.0,1,1,0
310, '1 ',1,31,33,133.80710018688788,26.33232664670795,0.0,0.0,0.0,0.0,1,1,0
311, '1 ',1,31,33,0.0,0.0,0.0,0.0,0.0,0.0,1,1,0
312, '1 ',1,31,33,0.0,0.0,0.0,0.0,0.0,0.0,1,1,0
313, '1 ',1,32,34,140.73844701158325,44.45982140564667,0.0,0.0,0.0,0.0,1,1,0
314, '1 ',1,32,36,119.65812164611789,22.178750415252008,0.0,0.0,0.0,0.0,1,1,0
315, '1 ',1,32,36,255.1912969776635,47.61754792555869,0.0,0.0,0.0,0.0,1,1,0
316, '1 ',1,32,36,64.23301852272357,14.237490218189544,0.0,0.0,0.0,0.0,1,1,0
317, '1 ',1,32,37,0.0,0.0,0.0,0.0,0.0,0.0,1,1,0
318, '1 ',1,32,37,255.48555192355934,47.68667420560978,0.0,0.0,0.0,0.0,1,1,0
319, '1 ',1,32,35,149.79222825418796,26.555252007685976,0.0,0.0,0.0,0.0,1,1,0
320, '1 ',1,32,35,74.87312917796372,22.37329221530976,0.0,0.0,0.0,0.0,1,1,0
321, '1 ',1,32,37,0.0,0.0,0.0,0.0,0.0,0.0,1,1,0
322, '1 ',1,32,37,0.0,0.0,0.0,0.0,0.0,0.0,1,1,0
323, '1 ',1,32,35,0.0,0.0,0.0,0.0,0.0,0.0,1,1,0
324, '1 ',1,32,36,0.0,0.0,0.0,0.0,0.0,0.0,1,1,0
325, '1 ',1,32,35,0.0,0.0,0.0,0.0,0.0,0.0,1,1,0
0 / END OF LOAD DATA, BEGIN FIXED SHUNT DATA
0 / END OF FIXED SHUNT DATA, BEGIN GENERATOR DATA
101,1,10,0,11.770617636851966,2.7677968069911003,1.035,0,24,0,1,0,0,1,1,100,23.806275659240782,18.48526287366636,1,1,0,1
101,2,10,0,10.430900099687278,1.629934678785503,1.035,0,24,0,1,0,0,1,1,100,22.173011395148933,17.752082745693624,1,1,0,1
101,3,76,14.1,30.22700452711433,-11.949661266058683,1.035,0,89,0,1,0,0,1,1,100,87.065933544375,32.89176653955132,1,1,0,1
101,4,76,14.1,27.306936328299344,-29.860006654867902,1.035,0,89,0,1,0,0,1,1,100,61.64319420848041,24.520540119295784,1,1,0,1
102,5,10,0,7.794370657764374,-0.08793361298739999,1.035,0,24,0,1,0,0,1,1,100,14.300153829157352,8.845161574324592,1,1,0,1
102,6,10,0,9.51669416576624,-2.1492315237410367,1.035,0,24,0,1,0,0,1,1,100,14.969906373880804,10.06156302635558,1,1,0,1
102,7,76,7,38.40735086007044,-31.34432067535819,1.035,0,89,0,1,0,0,1,1,100,70.29842920340597,59.79499440086361,1,1,0,1
102,8,76,7,31.54382163193077,-38.68022216181271,1.035,0,89,0,1,0,0,1,1,100,64.01877380181104,6.5428979665413465,1,1,0,1
107,9,80,17.2,60.09632252622396,10.406520416960127,1.025,0,118,0,1,0,0,1,1,100,90.69815181661397,33.45511703169905,1,1,0,1
107,10,80,17.2,58.48887706082314,-0.31088049709796906,1.025,0,118,0,1,0,0,1,1,100,105.79291086643934,44.140609299065545,1,1,0,1
107,11,80,17.2,67.6112797781825,-4.964252703823149,1.025,0,118,0,1,0,0,1,1,100,104.6689081704244,15.54358301917091,1,1,0,1
113,12,95.1,40.7,84.00918544456363,26.28976960480213,1.02,0,232,0,1,0,0,1,1,100,179.9780306401197,33.331334220361896,1,1,0,1
113,13,95.1,40.7,78.70265484973788,2.309950266033411,1.02,0,232,0,1,0,0,1,1,100,253.6154321901035,109.57634008459982,1,1,0,1
113,14,95.1,40.7,56.28792114555836,-32.05040056630969,1.02,0,232,0,1,0,0,1,1,100,248.41670121564533,134.89945273121356,1,1,0,1
114,15,0,13.7,164.97478158213198,-120.2526256069541,0.98,0,100,0,1,0,0,1,1,100,0.0,0.0,1,1,0,1
115,16,12,0,5.718316695000976,-2.0787224010564405,1.014,0,14,0,1,0,0,1,1,100,13.567475149780513,3.032844095081092,1,1,0,1
115,17,12,0,5.277057995740325,-1.847645633574575,1.014,0,14,0,1,0,0,1,1,100,12.228185488656164,3.955263247266414,1,1,0,1
115,18,12,0,5.943749221321195,1.5864861963316796,1.014,0,14,0,1,0,0,1,1,100,9.641311831399797,0.7046309090405689,1,1,0,1
115,19,12,0,6.579070871695876,-0.14823789205402083,1.014,0,14,0,1,0,0,1,1,100,11.907007364183663,2.6431274078786355,1,1,0,1
115,20,12,0,6.805975271109492,0.6716172834858298,1.014,0,14,0,1,0,0,1,1,100,15.097705411724746,4.864682348929346,1,1,0,1
115,21,155,0.05,97.54529331997037,5.546385841909796,1.014,0,182,0,1,0,0,1,1,100,142.938468555687,20.870729819661918,1,1,0,1
116,22,155,25.22,68.20455658063293,-30.6133722309023,1.017,0,182,0,1,0,0,1,1,100,184.82175821438432,65.5740541408537,1,1,0,1
118,23,400,137.4,190.07675259374082,-26.19984739692879,1.05,0,471,0,1,0,0,1,1,100,426.6188963875175,100.46367213130003,1,1,0,1
121,24,400,108.2,184.9482786282897,-45.19005669048056,1.05,0,471,0,1,0,0,1,1,100,411.4365258999169,59.821957405656576,1,1,0,1
122,25,50,-4.96,12.718929915875195,-5.8847520660609,1.05,0,53,0,1,0,0,1,1,100,39.83095098519698,27.729658631928217,1,1,0,1
122,26,50,-4.96,20.341649174690247,-1.8087690326385193,1.05,0,53,0,1,0,0,1,1,100,58.82820030907169,5.489967009052634,1,1,0,1
122,27,50,-4.96,16.048718497902154,-4.9345867091789835,1.05,0,53,0,1,0,0,1,1,100,55.08013061247766,37.58119342987193,1,1,0,1
122,28,50,-4.96,19.00651329755783,-8.463582943286745,1.05,0,53,0,1,0,0,1,1,100,36.66866552550345,27.406139354905136,1,1,0,1
122,29,50,-4.96,15.963182675838471,-3.1675560496747472,1.05,0,53,0,1,0,0,1,1,100,59.85225214855745,53.02480197509852,1,1,0,1
122,30,50,-4.96,14.204912266880275,-8.891603605821729,1.05,0,53,0,1,0,0,1,1,100,46.33679863763973,3.68462812730003,1,1,0,1
123,31,155,31.79,80.43248739466071,-30.684546809643507,1.05,0,182,0,1,0,0,1,1,100,124.51863914588465,31.40844705149064,1,1,0,1
123,32,155,31.79,94.63993716612458,-14.127290863078073,1.05,0,182,0,1,0,0,1,1,100,187.23693591472693,93.99128043311647,1,1,0,1
123,33,350,71.78,163.37103869067505,-41.28155248239639,1.05,0,412,0,1,0,0,1,1,100,280.01335621578613,73.70555778266856,1,1,0,1
201,34,10,0,10.1175695694983,1.5272263213992119,1.035,0,24,0,1,0,0,1,1,100,19.720989415422082,14.376518974611535,1,1,0,1
201,35,10,0,12.619475644081831,2.886927464045584,1.035,0,24,0,1,0,0,1,1,100,18.161515844985843,14.79941686066799,1,1,0,1
201,36,76,14.1,37.82536032842472,-21.787641840055585,1.035,0,89,0,1,0,0,1,1,100,86.46697855759412,16.725626809634278,1,1,0,1
201,37,76,14.1,36.05801691720262,-4.174080994212993,1.035,0,89,0,1,0,0,1,1,100,61.3639770289883,31.764142874260994,1,1,0,1
202,38,10,0,10.164982817601413,-0.07459719479084015,1.035,0,24,0,1,0,0,1,1,100,15.97180251032114,12.207851218394936,1,1,0,1
202,39,10,0,7.652511324733496,0.2799314637668431,1.035,0,24,0,1,0,0,1,1,100,20.99921687785536,17.91724627578631,1,1,0,1
202,40,76,7,22.224068211391565,-33.82521433220245,1.035,0,89,0,1,0,0,1,1,100,55.88825782984495,49.83320341378634,1,1,0,1
202,41,76,7,21.269426017999645,-28.44558759685606,1.035,0,89,0,1,0,0,1,1,100,63.1887317031622,51.95797916817569,1,1,0,1
207,42,80,17.2,55.782000691629946,-2.1581772565841675,1.025,0,118,0,1,0,0,1,1,100,100.3385986853391,23.79970217589289,1,1,0,1
207,43,80,17.2,58.898608359508216,9.90258505940438,1.025,0,118,0,1,0,0,1,1,100,102.15996661689132,15.648958248784766,1,1,0,1
207,44,80,17.2,51.35206355340778,4.34060792718082,1.025,0,118,0,1,0,0,1,1,100,126.46900764666498,55.24673601612449,1,1,0,1
213,45,95.1,40.7,84.7064675539732,20.880379635840654,1.02,0,232,0,1,0,0,1,1,100,213.04232932715675,50.99095632292327,1,1,0,1
213,46,95.1,40.7,103.80751746147872,11.169234015047564,1.02,0,232,0,1,0,0,1,1,100,225.97653706381095,126.81249288514022,1,1,0,1
213,47,95.1,40.7,83.54947980865836,10.258118625730276,1.02,0,232,0,1,0,0,1,1,100,182.6258763296995,53.37308176852295,1,1,0,1
214,48,0,13.68,152.04290954396126,-48.32510749576613,0.98,0,100,0,1,0,0,1,1,100,0.0,0.0,1,1,0,1
215,49,12,0,7.162791485991328,0.3484887119382609,1.014,0,14,0,1,0,0,1,1,100,15.216928578168153,7.057586434185504,1,1,0,1
215,50,12,0,4.591222344059497,-2.8567279184237133,1.014,0,14,0,1,0,0,1,1,100,12.394205871596931,2.522712347880006,1,1,0,1
215,51,12,0,6.861138231307269,1.506334936246276,1.014,0,14,0,1,0,0,1,1,100,12.299699742347002,3.389536987692118,1,1,0,1
215,52,12,0,4.733901331946253,-0.42689188001677536,1.014,0,14,0,1,0,0,1,1,100,10.739403370767832,3.33068198606372,1,1,0,1
215,53,12,0,4.720882120728493,-2.59570858804509,1.014,0,14,0,1,0,0,1,1,100,12.974352002330123,1.3081979507580392,1,1,0,1
215,54,155,0.048,57.148351456969976,-72.19581611687317,1.014,0,182,0,1,0,0,1,1,100,194.24710501055233,88.16644057839876,1,1,0,1
216,55,155,25.22,82.65082066506147,-38.65802833531052,1.017,0,182,0,1,0,0,1,1,100,168.30890065990388,74.98617680905154,1,1,0,1
218,56,400,137.4,252.71249320358038,-12.378343450836837,1.05,0,471,0,1,0,0,1,1,100,483.2363670691848,99.9591814307496,1,1,0,1
221,57,400,108.2,242.86398937925696,32.683079610578716,1.05,0,471,0,1,0,0,1,1,100,326.9945893622935,56.2041376857087,1,1,0,1
222,58,50,-4.96,18.246565236896277,-3.9362443233840168,1.05,0,53,0,1,0,0,1,1,100,57.442706890869886,5.805606878976773,1,1,0,1
222,59,50,-4.96,17.541446593403816,-11.019321143068375,1.05,0,53,0,1,0,0,1,1,100,51.919575568754226,12.021215509157635,1,1,0,1
222,60,50,-4.96,18.12144986912608,-5.8364217025227845,1.05,0,53,0,1,0,0,1,1,100,57.79494780814275,19.943825639784336,1,1,0,1
222,61,50,-4.96,17.996155028045177,-2.7545542385429123,1.05,0,53,0,1,0,0,1,1,100,63.459077801089734,27.024785361718386,1,1,0,1
222,62,50,-4.96,14.80474458411336,-9.459706213511526,1.05,0,53,0,1,0,0,1,1,100,49.30108557222411,23.14917858418518,1,1,0,1
222,63,50,-4.96,15.691114353388548,-4.906604377552865,1.05,0,53,0,1,0,0,1,1,100,43.01164394244552,0.4768140334635973,1,1,0,1
223,64,155,31.79,61.84055703505873,-55.73601526767016,1.05,0,182,0,1,0,0,1,1,100,116.35498547158203,3.865296229603686,1,1,0,1
223,65,155,31.79,92.00058115646243,-53.7579417261295,1.05,0,182,0,1,0,0,1,1,100,117.35814597900024,18.004561492218613,1,1,0,1
223,66,350,71.78,124.06866534613071,-63.25135774677618,1.05,0,412,0,1,0,0,1,1,100,330.94700244953856,137.7571915667504,1,1,0,1
301,67,10,0,9.70356500055641,-1.5560229965485632,1.035,0,24,0,1,0,0,1,1,100,19.645256710238755,15.212678071921692,1,1,0,1
301,68,10,0,12.600256514269859,4.67652296461165,1.035,0,24,0,1,0,0,1,1,100,17.412037101574242,13.80752327432856,1,1,0,1
301,69,76,14.1,24.5056695244275,-35.51878908160144,1.035,0,89,0,1,0,0,1,1,100,98.13403360955418,34.80517442964019,1,1,0,1
301,70,76,14.1,35.21226030215621,-36.15882833837533,1.035,0,89,0,1,0,0,1,1,100,83.81096575781703,17.75720450013877,1,1,0,1
302,71,10,0,10.009291944559664,-2.3247986300848424,1.035,0,24,0,1,0,0,1,1,100,18.964445484802127,15.27274076204747,1,1,0,1
302,72,10,0,10.999996109865606,-1.8513247864320874,1.035,0,24,0,1,0,0,1,1,100,25.628437510691583,22.29793087102473,1,1,0,1
302,73,76,7,22.057288798503578,-32.76777969696559,1.035,0,89,0,1,0,0,1,1,100,88.92909000683575,34.1433452020958,1,1,0,1
302,74,76,7,32.990576231852174,-33.486660599010065,1.035,0,89,0,1,0,0,1,1,100,71.48116561099887,25.245377454608686,1,1,0,1
307,75,80,17.2,67.35572160221636,-6.040445510298014,1.025,0,118,0,1,0,0,1,1,100,92.9014787869528,14.301627216627821,1,1,0,1
307,76,80,17.2,67.47140065021813,-1.1990408459678292,1.025,0,118,0,1,0,0,1,1,100,78.0666299816221,13.30695376265794,1,1,0,1
307,77,80,17.2,42.01212048344314,-1.9448728915303946,1.025,0,118,0,1,0,0,1,1,100,96.68558218050748,41.94844754063525,1,1,0,1
313,78,95.1,40.7,88.76024039834738,21.798605784773827,1.02,0,232,0,1,0,0,1,1,100,177.08548660315574,73.4669956161664,1,1,0,1
313,79,95.1,40.7,98.72544864565135,20.089693509042277,1.02,0,232,0,1,0,0,1,1,100,147.2796075239312,33.47349673667223,1,1,0,1
313,80,95.1,40.7,73.68382728099823,-8.287467196583748,1.02,0,232,0,1,0,0,1,1,100,155.13537397081961,51.92147279088849,1,1,0,1
314,81,0,13.68,163.4267544560134,-144.3753110640683,0.98,0,100,0,1,0,0,1,1,100,0.0,0.0,1,1,0,1
315,82,12,0,4.734600365906953,-3.03346370207146,1.014,0,14,0,1,0,0,1,1,100,8.981325784698129,5.452008175835519,1,1,0,1
315,83,12,0,6.7200593261048205,0.30592853240668916,1.014,0,14,0,1,0,0,1,1,100,12.469904299266638,2.731102263964715,1,1,0,1
315,84,12,0,7.396397890057415,1.738771949149669,1.014,0,14,0,1,0,0,1,1,100,13.070965068787338,2.444892785400153,1,1,0,1
315,85,12,0,7.573580111470073,1.808773641474545,1.014,0,14,0,1,0,0,1,1,100,10.565471964888275,6.594765968998268,1,1,0,1
315,86,12,0,4.752330190781503,-1.3233557637780917,1.014,0,14,0,1,0,0,1,1,100,11.336056273430586,2.2172070318460477,1,1,0,1
315,87,155,0.048,72.22448721155524,-81.78418891038746,1.014,0,182,0,1,0,0,1,1,100,137.07535750535317,29.422966890141836,1,1,0,1
316,88,155,25.22,91.47112565860152,-12.027150373440236,1.017,0,182,0,1,0,0,1,1,100,148.07167141907848,19.008978845202364,1,1,0,1
318,89,400,137.4,172.50747849233449,-83.48605676088485,1.05,0,471,0,1,0,0,1,1,100,494.53863382339483,153.33102029748267,1,1,0,1
321,90,400,108.2,214.47819638065994,-82.5866589997895,1.05,0,471,0,1,0,0,1,1,100,307.4077460728586,64.81422730255875,1,1,0,1
322,91,50,-4.96,14.320000303536654,-10.294675234798342,1.05,0,53,0,1,0,0,1,1,100,52.81219998374581,27.942336817213633,1,1,0,1
322,92,50,-4.96,13.127885544300078,-15.087876092549415,1.05,0,53,0,1,0,0,1,1,100,57.32261136639863,20.935665140859783,1,1,0,1
322,93,50,-4.96,20.33001044839621,1.4344781026244213,1.05,0,53,0,1,0,0,1,1,100,40.48064626287668,2.0814422916026722,1,1,0,1
322,94,50,-4.96,14.876909842342139,-18.841383088100706,1.05,0,53,0,1,0,0,1,1,100,40.211797654628754,30.75498474107191,1,1,0,1
322,95,50,-4.96,11.88227754831314,-11.78914065407589,1.05,0,53,0,1,0,0,1,1,100,46.811927643138915,5.912858876399696,1,1,0,1
322,96,50,-4.96,14.053389078378677,-13.934124467335641,1.05,0,53,0,1,0,0,1,1,100,46.05741248233244,2.7239644853398275,1,1,0,1
323,97,155,31.79,85.19978729262948,-24.12064266903326,1.05,0,182,0,1,0,0,1,1,100,131.41742115281522,37.35317465824774,1,1,0,1
323,98,155,31.79,73.24218989908695,-57.351356846280396,1.05,0,182,0,1,0,0,1,1,100,199.43280063499697,119.47349534045206,1,1,0,1
323,99,350,71.78,133.2880140398629,-37.075433898717165,1.05,0,412,0,1,0,0,1,1,100,270.33494221046567,11.8055690703913,1,1,0,1
0 / END OF GENERATOR DATA, BEGIN BRANCH DATA
101,102,1,0.003,0.014,0.461,210.0,231.6,240.0,0,0,0,0,1,1,0,1,1
101,103,1,0.055,0.211,0.057,210.0,249.6,264.0,0,0,0,0,1,1,0,1,1
101,105,1,0.022,0.085,0.023,210.0,249.6,264.0,0,0,0,0,1,1,0,1,1
102,104,1,0.033,0.127,0.034,210.0,249.6,264.0,0,0,0,0,1,1,0,1,1
102,106,1,0.05,0.192,0.052,210.0,249.6,264.0,0,0,0,0,1,1,0,1,1
103,109,1,0.031,0.119,0.032,210.0,249.6,264.0,0,0,0,0,1,1,0,1,1
104,109,1,0.027,0.104,0.028,210.0,249.6,264.0,0,0,0,0,1,1,0,1,1
105,110,1,0.023,0.088,0.024,210.0,249.6,264.0,0,0,0,0,1,1,0,1,1
106,110,1,0.014,0.061,2.459,210.0,231.6,240.0,0,0,0,0,1,1,0,1,1
107,108,1,0.016,0.061,0.017,210.0,249.6,264.0,0,0,0,0,1,1,0,1,1
107,203,1,0.042,0.161,0.044,210.0,249.6,264.0,0,0,0,0,1,1,0,1,1
108,109,1,0.043,0.165,0.045,210.0,249.6,264.0,0,0,0,0,1,1,0,1,1
108,110,1,0.043,0.165,0.045,210.0,249.6,264.0,0,0,0,0,1,1,0,1,1
111,113,1,0.006,0.048,0.1,600.0,720.0,750.0,0,0,0,0,1,1,0,1,1
111,114,1,0.005,0.042,0.088,600.0,720.0,750.0,0,0,0,0,1,1,0,1,1
112,113,1,0.006,0.048,0.1,600.0,720.0,750.0,0,0,0,0,1,1,0,1,1
112,123,1,0.012,0.097,0.203,600.0,720.0,750.0,0,0,0,0,1,1,0,1,1
113,123,1,0.011,0.087,0.182,600.0,720.0,750.0,0,0,0,0,1,1,0,1,1
113,215,1,0.01,0.075,0.158,600.0,720.0,750.0,0,0,0,0,1,1,0,1,1
114,116,1,0.005,0.059,0.082,600.0,720.0,750.0,0,0,0,0,1,1,0,1,1
115,116,1,0.002,0.017,0.036,600.0,720.0,750.0,0,0,0,0,1,1,0,1,1
115,121,1,0.006,0.049,0.103,600.0,720.0,750.0,0,0,0,0,1,1,0,1,1
115,121,2,0.006,0.049,0.103,600.0,720.0,750.0,0,0,0,0,1,1,0,1,1
115,124,1,0.007,0.052,0.109,600.0,720.0,750.0,0,0,0,0,1,1,0,1,1
116,117,1,0.003,0.026,0.055,600.0,720.0,750.0,0,0,0,0,1,1,0,1,1
116,119,1,0.003,0.023,0.049,600.0,720.0,750.0,0,0,0,0,1,1,0,1,1
117,118,1,0.002,0.014,0.03,600.0,720.0,750.0,0,0,0,0,1,1,0,1,1
117,122,1,0.014,0.105,0.221,600.0,720.0,750.0,0,0,0,0,1,1,0,1,1
118,121,1,0.003,0.026,0.055,600.0,720.0,750.0,0,0,0,0,1,1,0,1,1
118,121,2,0.003,0.026,0.055,600.0,720.0,750.0,0,0,0,0,1,1,0,1,1
119,120,1,0.005,0.04,0.083,600.0,720.0,750.0,0,0,0,0,1,1,0,1,1
119,120,2,0.005,0.04,0.083,600.0,720.0,750.0,0,0,0,0,1,1,0,1,1
120,123,1,0.003,0.022,0.046,600.0,720.0,750.0,0,0,0,0,1,1,0,1,1
120,123,2,0.003,0.022,0.046,600.0,720.0,750.0,0,0,0,0,1,1,0,1,1
121,122,1,0.009,0.068,0.142,600.0,720.0,750.0,0,0,0,0,1,1,0,1,1
123,217,1,0.01,0.074,0.155,600.0,720.0,750.0,0,0,0,0,1,1,0,1,1
201,202,1,0.003,0.014,0.461,210.0,231.6,240.0,0,0,0,0,1,1,0,1,1
201,203,1,0.055,0.211,0.057,210.0,249.6,264.0,0,0,0,0,1,1,0,1,1
201,205,1,0.022,0.085,0.023,210.0,249.6,264.0,0,0,0,0,1,1,0,1,1
202,204,1,0.033,0.127,0.034,210.0,249.6,264.0,0,0,0,0,1,1,0,1,1
202,206,1,0.05,0.192,0.052,210.0,249.6,264.0,0,0,0,0,1,1,0,1,1
203,209,1,0.031,0.119,0.032,210.0,249.6,264.0,0,0,0,0,1,1,0,1,1
204,209,1,0.027,0.104,0.028,210.0,249.6,264.0,0,0,0,0,1,1,0,1,1
205,210,1,0.023,0.088,0.024,210.0,249.6,264.0,0,0,0,0,1,1,0,1,1
206,210,1,0.014,0.061,2.459,210.0,231.6,240.0,0,0,0,0,1,1,0,1,1
207,208,1,0.016,0.061,0.017,210.0,249.6,264.0,0,0,0,0,1,1,0,1,1
208,209,1,0.043,0.165,0.045,210.0,249.6,264.0,0,0,0,0,1,1,0,1,1
208,210,1,0.043,0.165,0.045,210.0,249.6,264.0,0,0,0,0,1,1,0,1,1
211,213,1,0.006,0.048,0.1,600.0,720.0,750.0,0,0,0,0,1,1,0,1,1
211,214,1,0.005,0.042,0.088,600.0,720.0,750.0,0,0,0,0,1,1,0,1,1
212,213,1,0.006,0.048,0.1,600.0,720.0,750.0,0,0,0,0,1,1,0,1,1
212,223,1,0.012,0.097,0.203,600.0,720.0,750.0,0,0,0,0,1,1,0,1,1
213,223,1,0.011,0.087,0.182,600.0,720.0,750.0,0,0,0,0,1,1,0,1,1
214,216,1,0.005,0.059,0.082,600.0,720.0,750.0,0,0,0,0,1,1,0,1,1
215,216,1,0.002,0.017,0.036,600.0,720.0,750.0,0,0,0,0,1,1,0,1,1
215,221,1,0.006,0.049,0.103,600.0,720.0,750.0,0,0,0,0,1,1,0,1,1
215,221,2,0.006,0.049,0.103,600.0,720.0,750.0,0,0,0,0,1,1,0,1,1
215,224,1,0.007,0.052,0.109,600.0,720.0,750.0,0,0,0,0,1,1,0,1,1
216,217,1,0.003,0.026,0.055,600.0,720.0,750.0,0,0,0,0,1,1,0,1,1
216,219,1,0.003,0.023,0.049,600.0,720.0,750.0,0,0,0,0,1,1,0,1,1
217,218,1,0.002,0.014,0.03,600.0,720.0,750.0,0,0,0,0,1,1,0,1,1
217,222,1,0.014,0.105,0.221,600.0,720.0,750.0,0,0,0,0,1,1,0,1,1
218,221,1,0.003,0.026,0.055,600.0,720.0,750.0,0,0,0,0,1,1,0,1,1
218,221,2,0.003,0.026,0.055,600.0,720.0,750.0,0,0,0,0,1,1,0,1,1
219,220,1,0.005,0.04,0.083,600.0,720.0,750.0,0,0,0,0,1,1,0,1,1
219,220,2,0.005,0.04,0.083,600.0,720.0,750.0,0,0,0,0,1,1,0,1,1
220,223,1,0.003,0.022,0.046,600.0,720.0,750.0,0,0,0,0,1,1,0,1,1
220,223,2,0.003,0.022,0.046,600.0,720.0,750.0,0,0,0,0,1,1,0,1,1
221,222,1,0.009,0.068,0.142,600.0,720.0,750.0,0,0,0,0,1,1,0,1,1
301,302,1,0.003,0.014,0.461,210.0,231.6,240.0,0,0,0,0,1,1,0,1,1
301,303,1,0.055,0.211,0.057,210.0,249.6,264.0,0,0,0,0,1,1,0,1,1
301,305,1,0.022,0.085,0.023,210.0,249.6,264.0,0,0,0,0,1,1,0,1,1
302,304,1,0.033,0.127,0.034,210.0,249.6,264.0,0,0,0,0,1,1,0,1,1
302,306,1,0.05,0.192,0.052,210.0,249.6,264.0,0,0,0,0,1,1,0,1,1
303,309,1,0.031,0.119,0.032,210.0,249.6,264.0,0,0,0,0,1,1,0,1,1
304,309,1,0.027,0.104,0.028,210.0,249.6,264.0,0,0,0,0,1,1,0,1,1
305,310,1,0.023,0.088,0.024,210.0,249.6,264.0,0,0,0,0,1,1,0,1,1
306,310,1,0.014,0.061,2.459,210.0,231.6,240.0,0,0,0,0,1,1,0,1,1
307,308,1,0.016,0.061,0.017,210.0,249.6,264.0,0,0,0,0,1,1,0,1,1
308,309,1,0.043,0.165,0.045,210.0,249.6,264.0,0,0,0,0,1,1,0,1,1
308,310,1,0.043,0.165,0.045,210.0,249.6,264.0,0,0,0,0,1,1,0,1,1
311,313,1,0.006,0.048,0.1,600.0,720.0,750.0,0,0,0,0,1,1,0,1,1
311,314,1,0.005,0.042,0.088,600.0,720.0,750.0,0,0,0,0,1,1,0,1,1
312,313,1,0.006,0.048,0.1,600.0,720.0,750.0,0,0,0,0,1,1,0,1,1
312,323,1,0.012,0.097,0.203,600.0,720.0,750.0,0,0,0,0,1,1,0,1,1
313,323,1,0.011,0.087,0.182,600.0,720.0,750.0,0,0,0,0,1,1,0,1,1
314,316,1,0.005,0.059,0.082,600.0,720.0,750.0,0,0,0,0,1,1,0,1,1
315,316,1,0.002,0.017,0.036,600.0,720.0,750.0,0,0,0,0,1,1,0,1,1
315,321,1,0.006,0.049,0.103,600.0,720.0,750.0,0,0,0,0,1,1,0,1,1
315,321,2,0.006,0.049,0.103,600.0,720.0,750.0,0,0,0,0,1,1,0,1,1
315,324,1,0.007,0.052,0.109,600.0,720.0,750.0,0,0,0,0,1,1,0,1,1
316,317,1,0.003,0.026,0.055,600.0,720.0,750.0,0,0,0,0,1,1,0,1,1
316,319,1,0.003,0.023,0.049,600.0,720.0,750.0,0,0,0,0,1,1,0,1,1
317,318,1,0.002,0.014,0.03,600.0,720.0,750.0,0,0,0,0,1,1,0,1,1
317,322,1,0.014,0.105,0.221,600.0,720.0,750.0,0,0,0,0,1,1,0,1,1
318,223,1,0.013,0.104,0.218,600.0,720.0,750.0,0,0,0,0,1,1,0,1,1
318,321,1,0.003,0.026,0.055,600.0,720.0,750.0,0,0,0,0,1,1,0,1,1
318,321,2,0.003,0.026,0.055,600.0,720.0,750.0,0,0,0,0,1,1,0,1,1
319,320,1,0.005,0.04,0.083,600.0,720.0,750.0,0,0,0,0,1,1,0,1,1
319,320,2,0.005,0.04,0.083,600.0,720.0,750.0,0,0,0,0,1,1,0,1,1
320,323,1,0.003,0.022,0.046,600.0,720.0,750.0,0,0,0,0,1,1,0,1,1
320,323,2,0.003,0.022,0.046,600.0,720.0,750.0,0,0,0,0,1,1,0,1,1
321,322,1,0.009,0.068,0.142,600.0,720.0,750.0,0,0,0,0,1,1,0,1,1
323,325,1,0,0.009,0,866.4,1071.6,1071.6,0,0,0,0,1,1,0,1,1
0 / END OF BRANCH DATA, BEGIN TRANSFORMER DATA
  103 ,  124 , 0,  1 , 1, 1, 1, 0, 0, 2, '            ',  1 , 1, 1
   0.002000 ,  0.084000 ,  100.000000
   1.015000 , 0,  0.000000 ,  400.000000 ,  510.000000 ,  600.000000 , 0, 0,  1.10 ,  0.90 ,  1.10 ,  0.90 , 33, 0, 0, 0
   1.000000, 0
  109 ,  111 , 0,  1 , 1, 1, 1, 0, 0, 2, '            ',  1 , 1, 1
   0.002000 ,  0.084000 ,  100.000000
   1.030000 , 0,  0.000000 ,  400.000000 ,  510.000000 ,  600.000000 , 0, 0,  1.10 ,  0.90 ,  1.10 ,  0.90 , 33, 0, 0, 0
   1.000000, 0
  109 ,  112 , 0,  1 , 1, 1, 1, 0, 0, 2, '            ',  1 , 1, 1
   0.002000 ,  0.084000 ,  100.000000
   1.030000 , 0,  0.000000 ,  400.000000 ,  510.000000 ,  600.000000 , 0, 0,  1.10 ,  0.90 ,  1.10 ,  0.90 , 33, 0, 0, 0
   1.000000, 0
  110 ,  111 , 0,  1 , 1, 1, 1, 0, 0, 2, '            ',  1 , 1, 1
   0.002000 ,  0.084000 ,  100.000000
   1.015000 , 0,  0.000000 ,  400.000000 ,  510.000000 ,  600.000000 , 0, 0,  1.10 ,  0.90 ,  1.10 ,  0.90 , 33, 0, 0, 0
   1.000000, 0
  110 ,  112 , 0,  1 , 1, 1, 1, 0, 0, 2, '            ',  1 , 1, 1
   0.002000 ,  0.084000 ,  100.000000
   1.015000 , 0,  0.000000 ,  400.000000 ,  510.000000 ,  600.000000 , 0, 0,  1.10 ,  0.90 ,  1.10 ,  0.90 , 33, 0, 0, 0
   1.000000, 0
  203 ,  224 , 0,  1 , 1, 1, 1, 0, 0, 2, '            ',  1 , 1, 1
   0.002000 ,  0.084000 ,  100.000000
   1.015000 , 0,  0.000000 ,  400.000000 ,  510.000000 ,  600.000000 , 0, 0,  1.10 ,  0.90 ,  1.10 ,  0.90 , 33, 0, 0, 0
   1.000000, 0
  209 ,  211 , 0,  1 , 1, 1, 1, 0, 0, 2, '            ',  1 , 1, 1
   0.002000 ,  0.084000 ,  100.000000
   1.030000 , 0,  0.000000 ,  400.000000 ,  510.000000 ,  600.000000 , 0, 0,  1.10 ,  0.90 ,  1.10 ,  0.90 , 33, 0, 0, 0
   1.000000, 0
  209 ,  212 , 0,  1 , 1, 1, 1, 0, 0, 2, '            ',  1 , 1, 1
   0.002000 ,  0.084000 ,  100.000000
   1.030000 , 0,  0.000000 ,  400.000000 ,  510.000000 ,  600.000000 , 0, 0,  1.10 ,  0.90 ,  1.10 ,  0.90 , 33, 0, 0, 0
   1.000000, 0
  210 ,  211 , 0,  1 , 1, 1, 1, 0, 0, 2, '            ',  1 , 1, 1
   0.002000 ,  0.084000 ,  100.000000
   1.015000 , 0,  0.000000 ,  400.000000 ,  510.000000 ,  600.000000 , 0, 0,  1.10 ,  0.90 ,  1.10 ,  0.90 , 33, 0, 0, 0
   1.000000, 0
  210 ,  212 , 0,  1 , 1, 1, 1, 0, 0, 2, '            ',  1 , 1, 1
   0.002000 ,  0.084000 ,  100.000000
   1.015000 , 0,  0.000000 ,  400.000000 ,  510.000000 ,  600.000000 , 0, 0,  1.10 ,  0.90 ,  1.10 ,  0.90 , 33, 0, 0, 0
   1.000000, 0
  303 ,  324 , 0,  1 , 1, 1, 1, 0, 0, 2, '            ',  1 , 1, 1
   0.002000 ,  0.084000 ,  100.000000
   1.015000 , 0,  0.000000 ,  400.000000 ,  510.000000 ,  600.000000 , 0, 0,  1.10 ,  0.90 ,  1.10 ,  0.90 , 33, 0, 0, 0
   1.000000, 0
  309 ,  311 , 0,  1 , 1, 1, 1, 0, 0, 2, '            ',  1 , 1, 1
   0.002000 ,  0.084000 ,  100.000000
   1.030000 , 0,  0.000000 ,  400.000000 ,  510.000000 ,  600.000000 , 0, 0,  1.10 ,  0.90 ,  1.10 ,  0.90 , 33, 0, 0, 0
   1.000000, 0
  309 ,  312 , 0,  1 , 1, 1, 1, 0, 0, 2, '            ',  1 , 1, 1
   0.002000 ,  0.084000 ,  100.000000
   1.030000 , 0,  0.000000 ,  400.000000 ,  510.000000 ,  600.000000 , 0, 0,  1.10 ,  0.90 ,  1.10 ,  0.90 , 33, 0, 0, 0
   1.000000, 0
  310 ,  311 , 0,  1 , 1, 1, 1, 0, 0, 2, '            ',  1 , 1, 1
   0.002000 ,  0.084000 ,  100.000000
   1.015000 , 0,  0.000000 ,  400.000000 ,  510.000000 ,  600.000000 , 0, 0,  1.10 ,  0.90 ,  1.10 ,  0.90 , 33, 0, 0, 0
   1.000000, 0
  310 ,  312 , 0,  1 , 1, 1, 1, 0, 0, 2, '            ',  1 , 1, 1
   0.002000 ,  0.084000 ,  100.000000
   1.015000 , 0,  0.000000 ,  400.000000 ,  510.000000 ,  600.000000 , 0, 0,  1.10 ,  0.90 ,  1.10 ,  0.90 , 33, 0, 0, 0
   1.000000, 0
0 / END OF TRANSFORMER DATA, BEGIN AREA DATA
0 / END OF AREA DATA, BEGIN TWO-TERMINAL DC DATA
0 / END OF TWO-TERMINAL DC DATA, BEGIN VSC DC LINE DATA
0 / END OF VSC DC LINE DATA, BEGIN SWITCHED SHUNT DATA
0 / END OF SWITCHED SHUNT DATA, BEGIN IMPEDANCE CORRECTION DATA
0 / END OF IMPEDANCE CORRECTION DATA, BEGIN MULTI-TERMINAL DC DATA
0 / END OF MULTI-TERMINAL DC DATA, BEGIN MULTI-SECTION LINE DATA
0 / END OF MULTI-SECTION LINE DATA, BEGIN ZONE DATA
0 / END OF ZONE DATA, BEGIN INTER-AREA TRANSFER DATA
0 / END OF INTER-AREA TRANSFER DATA, BEGIN OWNER DATA
0 / END OF OWNER DATA, BEGIN FACTS CONTROL DEVICE DATA
0 / END OF FACTS CONTROL DEVICE DATA
0 / END OF SWITCHED SHUNT DATA, BEGIN GNE DATA
0 / END OF GNE DATA, BEGIN INDUCTION MACHINE DATA
0 / END OF INDUCTION MACHINE DATA
Q 
